Version 4
SHEET 1 880 680
WIRE 144 96 -224 96
WIRE 256 96 224 96
WIRE 288 96 256 96
WIRE 416 96 368 96
WIRE 496 96 416 96
WIRE -224 160 -224 96
WIRE 256 160 256 96
WIRE 416 160 416 96
FLAG -224 240 0
FLAG 256 224 0
FLAG 416 224 0
FLAG 496 96 Vout
SYMBOL voltage -224 144 R0
WINDOW 123 0 0 Left 0
WINDOW 39 0 0 Left 0
SYMATTR InstName V1
SYMATTR Value PULSE(0 3.3 0 10n 10n 5u 10u)
SYMBOL res 240 80 R90
WINDOW 0 0 56 VBottom 2
WINDOW 3 32 56 VTop 2
SYMATTR InstName R1
SYMATTR Value 5.1k
SYMBOL res 384 80 R90
WINDOW 0 0 56 VBottom 2
WINDOW 3 32 56 VTop 2
SYMATTR InstName R2
SYMATTR Value 5.1k
SYMBOL cap 240 160 R0
SYMATTR InstName C1
SYMATTR Value 100n
SYMBOL cap 400 160 R0
SYMATTR InstName C2
SYMATTR Value 100n
TEXT -258 264 Left 2 !.tran 100m startup
