Version 4
SHEET 1 1104 680
WIRE 144 -368 -128 -368
WIRE 256 -368 144 -368
WIRE 656 -368 512 -368
WIRE 944 -368 656 -368
WIRE 1040 -368 944 -368
WIRE 1040 -352 1040 -368
WIRE 656 -336 656 -368
WIRE 944 -320 944 -368
WIRE -128 -288 -128 -368
WIRE 144 -272 144 -368
WIRE 256 -272 144 -272
WIRE 256 -176 144 -176
WIRE 656 -176 656 -256
WIRE 656 -176 512 -176
WIRE 816 -176 656 -176
WIRE 944 -176 896 -176
WIRE 144 -128 144 -176
WIRE 656 -112 656 -176
WIRE 144 96 -224 96
WIRE 256 96 224 96
WIRE 288 96 256 96
WIRE 416 96 368 96
WIRE 496 96 416 96
WIRE 944 96 944 -176
WIRE 944 96 496 96
WIRE -224 160 -224 96
WIRE 256 160 256 96
WIRE 416 160 416 96
FLAG -224 240 0
FLAG 256 224 0
FLAG 416 224 0
FLAG 496 96 Vset
FLAG -128 -208 0
FLAG 384 -112 0
FLAG 656 -32 0
FLAG 1040 -288 0
FLAG 144 -64 0
FLAG 944 -240 0
SYMBOL voltage -224 144 R0
WINDOW 123 0 0 Left 0
WINDOW 39 0 0 Left 0
SYMATTR InstName V1
SYMATTR Value PULSE(0 3.3 20m 100n 100n 40u 50u)
SYMBOL res 240 80 R90
WINDOW 0 0 56 VBottom 2
WINDOW 3 32 56 VTop 2
SYMATTR InstName R1
SYMATTR Value 17.4k
SYMBOL res 384 80 R90
WINDOW 0 0 56 VBottom 2
WINDOW 3 32 56 VTop 2
SYMATTR InstName R2
SYMATTR Value 5.1k
SYMBOL cap 240 160 R0
SYMATTR InstName C1
SYMATTR Value 100n
SYMBOL cap 400 160 R0
SYMATTR InstName C2
SYMATTR Value 100n
SYMBOL PowerProducts\\ADM7170 384 -272 R0
SYMATTR InstName U1
SYMBOL voltage -128 -304 R0
SYMATTR InstName V2
SYMATTR Value 5V
SYMBOL res 640 -352 R0
SYMATTR InstName R3
SYMATTR Value 47k
SYMBOL res 640 -128 R0
SYMATTR InstName R4
SYMATTR Value 33k
SYMBOL res 912 -192 R90
WINDOW 0 0 56 VBottom 2
WINDOW 3 32 56 VTop 2
SYMATTR InstName R5
SYMATTR Value 47k
SYMBOL cap 1024 -352 R0
SYMATTR InstName C3
SYMATTR Value 2.2µ
SYMBOL cap 128 -128 R0
SYMATTR InstName C4
SYMATTR Value 10p
SYMBOL res 928 -336 R0
SYMATTR InstName R6
SYMATTR Value 500
TEXT -256 264 Left 2 !.tran 100m startup
